Circuit: * C:\users\dmytro\Documents\projects\pico-harmonics\simulations\triangle_gen.asc

Limiting rise time of source v2 to 3.3e-006
Limiting fall time of source v2 to 3.3e-006
Direct Newton iteration for .op point succeeded.

Date: Mon Aug 07 00:52:02 2023
Total elapsed time: 0.332 seconds.

tnom = 27
temp = 27
method = modified trap
totiter = 18271
traniter = 18268
tranpoints = 6358
accept = 4760
rejected = 1598
matrix size = 12
fillins = 6
solver = Normal
Matrix Compiler1: 1.02 KB object code size  0.5/0.3/[0.3]
Matrix Compiler2: 1.07 KB object code size  0.3/0.4/[0.3]

